*Heading
** Job name: Job-HETVAL-LI-1 Model name: Model_HETVAL_LI
*Preprint, echo=NO, model=NO, history=NO, contact=NO
**
** PARTS
**
*Part, name=Part-1
*Node
      1,          13.,  0.200000003
      2,          13.,           0.
      3,          21.,           0.
      4,          21.,  0.200000003
      5,           8.,  0.200000003
      6,           8.,           0.
      7,           0.,  0.200000003
      8,           0.,           0.
      9,   13.1999998,           0.
     10,   13.3999987,           0.
     11,   13.5999994,           0.
     12,   13.8000002,           0.
     13,          14.,           0.
     14,   14.1999998,           0.
     15,   14.3999987,           0.
     16,   14.5999994,           0.
     17,   14.8000002,           0.
     18,          15.,           0.
     19,   15.1999998,           0.
     20,   15.3999987,           0.
** ... 192 like lines cut
*Element, type=DCCAX4
 1,  1,  2,  9, 86
 2, 86,  9, 10, 85
 3, 85, 10, 11, 84
 4, 84, 11, 12, 83
 5, 83, 12, 13, 82
 6, 82, 13, 14, 81
 7, 81, 14, 15, 80
 8, 80, 15, 16, 79
 9, 79, 16, 17, 78
10, 78, 17, 18, 77
11, 77, 18, 19, 76
12, 76, 19, 20, 75
13, 75, 20, 21, 74
14, 74, 21, 22, 73
15, 73, 22, 23, 72
16, 72, 23, 24, 71
17, 71, 24, 25, 70
18, 70, 25, 26, 69
19, 69, 26, 27, 68
20, 68, 27, 28, 67
** ... 85 like lines cut
*Nset, nset=_PickedSet13, internal
   5,   6,   7,   8, 135, 136, 137, 138, 139, 140, 141, 142, 143, 144, 145, 146
 147, 148, 149, 150, 151, 152, 153, 154, 155, 156, 157, 158, 159, 160, 161, 162
 163, 164, 165, 166, 167, 168, 169, 170, 171, 172, 173, 174, 175, 176, 177, 178
 179, 180, 181, 182, 183, 184, 185, 186, 187, 188, 189, 190, 191, 192, 193, 194
 195, 196, 197, 198, 199, 200, 201, 202, 203, 204, 205, 206, 207, 208, 209, 210
 211, 212
*Elset, elset=_PickedSet13, internal, generate
  66,  105,    1
*Nset, nset=_PickedSet14, internal
   5,   6,   7,   8, 135, 136, 137, 138, 139, 140, 141, 142, 143, 144, 145, 146
 147, 148, 149, 150, 151, 152, 153, 154, 155, 156, 157, 158, 159, 160, 161, 162
 163, 164, 165, 166, 167, 168, 169, 170, 171, 172, 173, 174, 175, 176, 177, 178
 179, 180, 181, 182, 183, 184, 185, 186, 187, 188, 189, 190, 191, 192, 193, 194
 195, 196, 197, 198, 199, 200, 201, 202, 203, 204, 205, 206, 207, 208, 209, 210
 211, 212
*Elset, elset=_PickedSet14, internal, generate
  66,  105,    1
*Nset, nset=_PickedSet15, internal
   1,   2,   5,   6,  87,  88,  89,  90,  91,  92,  93,  94,  95,  96,  97,  98
  99, 100, 101, 102, 103, 104, 105, 106, 107, 108, 109, 110, 111, 112, 113, 114
 115, 116, 117, 118, 119, 120, 121, 122, 123, 124, 125, 126, 127, 128, 129, 130
 131, 132, 133, 134
*Elset, elset=_PickedSet15, internal, generate
 41,  65,   1
*Nset, nset=_PickedSet16, internal
  1,  2,  3,  4,  9, 10, 11, 12, 13, 14, 15, 16, 17, 18, 19, 20
 21, 22, 23, 24, 25, 26, 27, 28, 29, 30, 31, 32, 33, 34, 35, 36
 37, 38, 39, 40, 41, 42, 43, 44, 45, 46, 47, 48, 49, 50, 51, 52
 53, 54, 55, 56, 57, 58, 59, 60, 61, 62, 63, 64, 65, 66, 67, 68
 69, 70, 71, 72, 73, 74, 75, 76, 77, 78, 79, 80, 81, 82, 83, 84
 85, 86
*Elset, elset=_PickedSet16, internal, generate
  1,  40,   1
*Nset, nset=_PickedSet18, internal
   5,   6,   7,   8, 135, 136, 137, 138, 139, 140, 141, 142, 143, 144, 145, 146
 147, 148, 149, 150, 151, 152, 153, 154, 155, 156, 157, 158, 159, 160, 161, 162
 163, 164, 165, 166, 167, 168, 169, 170, 171, 172, 173, 174, 175, 176, 177, 178
 179, 180, 181, 182, 183, 184, 185, 186, 187, 188, 189, 190, 191, 192, 193, 194
 195, 196, 197, 198, 199, 200, 201, 202, 203, 204, 205, 206, 207, 208, 209, 210
 211, 212
*Elset, elset=_PickedSet18, internal, generate
  66,  105,    1
*Nset, nset=_PickedSet19, internal
   1,   2,   5,   6,  87,  88,  89,  90,  91,  92,  93,  94,  95,  96,  97,  98
  99, 100, 101, 102, 103, 104, 105, 106, 107, 108, 109, 110, 111, 112, 113, 114
 115, 116, 117, 118, 119, 120, 121, 122, 123, 124, 125, 126, 127, 128, 129, 130
 131, 132, 133, 134
*Elset, elset=_PickedSet19, internal, generate
 41,  65,   1
*Nset, nset=_PickedSet20, internal
  1,  2,  3,  4,  9, 10, 11, 12, 13, 14, 15, 16, 17, 18, 19, 20
 21, 22, 23, 24, 25, 26, 27, 28, 29, 30, 31, 32, 33, 34, 35, 36
 37, 38, 39, 40, 41, 42, 43, 44, 45, 46, 47, 48, 49, 50, 51, 52
 53, 54, 55, 56, 57, 58, 59, 60, 61, 62, 63, 64, 65, 66, 67, 68
 69, 70, 71, 72, 73, 74, 75, 76, 77, 78, 79, 80, 81, 82, 83, 84
 85, 86
*Elset, elset=_PickedSet20, internal, generate
  1,  40,   1
*Nset, nset=_PickedSet21, internal
   5,   6,   7,   8, 135, 136, 137, 138, 139, 140, 141, 142, 143, 144, 145, 146
 147, 148, 149, 150, 151, 152, 153, 154, 155, 156, 157, 158, 159, 160, 161, 162
 163, 164, 165, 166, 167, 168, 169, 170, 171, 172, 173, 174, 175, 176, 177, 178
 179, 180, 181, 182, 183, 184, 185, 186, 187, 188, 189, 190, 191, 192, 193, 194
 195, 196, 197, 198, 199, 200, 201, 202, 203, 204, 205, 206, 207, 208, 209, 210
 211, 212
*Elset, elset=_PickedSet21, internal, generate
  66,  105,    1
*Nset, nset=_PickedSet22, internal
   5,   6,   7,   8, 135, 136, 137, 138, 139, 140, 141, 142, 143, 144, 145, 146
 147, 148, 149, 150, 151, 152, 153, 154, 155, 156, 157, 158, 159, 160, 161, 162
 163, 164, 165, 166, 167, 168, 169, 170, 171, 172, 173, 174, 175, 176, 177, 178
 179, 180, 181, 182, 183, 184, 185, 186, 187, 188, 189, 190, 191, 192, 193, 194
 195, 196, 197, 198, 199, 200, 201, 202, 203, 204, 205, 206, 207, 208, 209, 210
 211, 212
*Elset, elset=_PickedSet22, internal, generate
  66,  105,    1
*Nset, nset=_PickedSet23, internal
   1,   2,   5,   6,  87,  88,  89,  90,  91,  92,  93,  94,  95,  96,  97,  98
  99, 100, 101, 102, 103, 104, 105, 106, 107, 108, 109, 110, 111, 112, 113, 114
 115, 116, 117, 118, 119, 120, 121, 122, 123, 124, 125, 126, 127, 128, 129, 130
 131, 132, 133, 134
*Elset, elset=_PickedSet23, internal, generate
 41,  65,   1
*Nset, nset=_PickedSet24, internal
  1,  2,  3,  4,  9, 10, 11, 12, 13, 14, 15, 16, 17, 18, 19, 20
 21, 22, 23, 24, 25, 26, 27, 28, 29, 30, 31, 32, 33, 34, 35, 36
 37, 38, 39, 40, 41, 42, 43, 44, 45, 46, 47, 48, 49, 50, 51, 52
 53, 54, 55, 56, 57, 58, 59, 60, 61, 62, 63, 64, 65, 66, 67, 68
 69, 70, 71, 72, 73, 74, 75, 76, 77, 78, 79, 80, 81, 82, 83, 84
 85, 86
*Elset, elset=_PickedSet24, internal, generate
  1,  40,   1
*Nset, nset=_PickedSet28, internal
   1,   2,   5,   6,  87,  88,  89,  90,  91,  92,  93,  94,  95,  96,  97,  98
  99, 100, 101, 102, 103, 104, 105, 106, 107, 108, 109, 110, 111, 112, 113, 114
 115, 116, 117, 118, 119, 120, 121, 122, 123, 124, 125, 126, 127, 128, 129, 130
 131, 132, 133, 134
*Elset, elset=_PickedSet28, internal, generate
 41,  65,   1
** Region: (Bone:Picked)
*Elset, elset=_PickedSet24, internal, generate
  1,  40,   1
** Section: Bone
*Solid Section, elset=_PickedSet24, material=Bone
1.,
** Region: (Cement:Picked)
*Elset, elset=_PickedSet28, internal, generate
 41,  65,   1
** Section: Cement
*Solid Section, elset=_PickedSet28, material=Cement
1.,
** Region: (Implant:Picked)
*Elset, elset=_PickedSet22, internal, generate
  66,  105,    1
** Section: Implant
*Solid Section, elset=_PickedSet22, material=Implant
1.,
*End Part
**  
**
** ASSEMBLY
**
*Assembly, name=Assembly
**  
*Instance, name=Part-1-1, part=Part-1
*End Instance
**  
*Nset, nset=_PickedSet5, internal, instance=Part-1-1
 3, 4
*Elset, elset=_PickedSet5, internal, instance=Part-1-1
 40,
*Nset, nset=cement, instance=Part-1-1
   1,   2,   5,   6,  87,  88,  89,  90,  91,  92,  93,  94,  95,  96,  97,  98
  99, 100, 101, 102, 103, 104, 105, 106, 107, 108, 109, 110, 111, 112, 113, 114
 115, 116, 117, 118, 119, 120, 121, 122, 123, 124, 125, 126, 127, 128, 129, 130
 131, 132, 133, 134
*Elset, elset=cement, instance=Part-1-1, generate
 41,  65,   1
*Nset, nset=Implant, instance=Part-1-1
   5,   6,   7,   8, 135, 136, 137, 138, 139, 140, 141, 142, 143, 144, 145, 146
 147, 148, 149, 150, 151, 152, 153, 154, 155, 156, 157, 158, 159, 160, 161, 162
 163, 164, 165, 166, 167, 168, 169, 170, 171, 172, 173, 174, 175, 176, 177, 178
 179, 180, 181, 182, 183, 184, 185, 186, 187, 188, 189, 190, 191, 192, 193, 194
 195, 196, 197, 198, 199, 200, 201, 202, 203, 204, 205, 206, 207, 208, 209, 210
 211, 212
*Elset, elset=Implant, instance=Part-1-1, generate
  66,  105,    1
*Nset, nset=Bone, instance=Part-1-1
  1,  2,  3,  4,  9, 10, 11, 12, 13, 14, 15, 16, 17, 18, 19, 20
 21, 22, 23, 24, 25, 26, 27, 28, 29, 30, 31, 32, 33, 34, 35, 36
 37, 38, 39, 40, 41, 42, 43, 44, 45, 46, 47, 48, 49, 50, 51, 52
 53, 54, 55, 56, 57, 58, 59, 60, 61, 62, 63, 64, 65, 66, 67, 68
 69, 70, 71, 72, 73, 74, 75, 76, 77, 78, 79, 80, 81, 82, 83, 84
 85, 86
*Elset, elset=Bone, instance=Part-1-1, generate
  1,  40,   1
*Nset, nset=_PickedSet11, internal, instance=Part-1-1
  1,  2,  3,  4,  9, 10, 11, 12, 13, 14, 15, 16, 17, 18, 19, 20
 21, 22, 23, 24, 25, 26, 27, 28, 29, 30, 31, 32, 33, 34, 35, 36
 37, 38, 39, 40, 41, 42, 43, 44, 45, 46, 47, 48, 49, 50, 51, 52
 53, 54, 55, 56, 57, 58, 59, 60, 61, 62, 63, 64, 65, 66, 67, 68
 69, 70, 71, 72, 73, 74, 75, 76, 77, 78, 79, 80, 81, 82, 83, 84
 85, 86
*Elset, elset=_PickedSet11, internal, instance=Part-1-1, generate
  1,  40,   1
*Nset, nset=_PickedSet12, internal, instance=Part-1-1
   1,   2,   5,   6,   7,   8,  87,  88,  89,  90,  91,  92,  93,  94,  95,  96
  97,  98,  99, 100, 101, 102, 103, 104, 105, 106, 107, 108, 109, 110, 111, 112
 113, 114, 115, 116, 117, 118, 119, 120, 121, 122, 123, 124, 125, 126, 127, 128
 129, 130, 131, 132, 133, 134, 135, 136, 137, 138, 139, 140, 141, 142, 143, 144
 145, 146, 147, 148, 149, 150, 151, 152, 153, 154, 155, 156, 157, 158, 159, 160
 161, 162, 163, 164, 165, 166, 167, 168, 169, 170, 171, 172, 173, 174, 175, 176
 177, 178, 179, 180, 181, 182, 183, 184, 185, 186, 187, 188, 189, 190, 191, 192
 193, 194, 195, 196, 197, 198, 199, 200, 201, 202, 203, 204, 205, 206, 207, 208
 209, 210, 211, 212
*Elset, elset=_PickedSet12, internal, instance=Part-1-1, generate
  41,  105,    1
*End Assembly
** 
** MATERIALS
** 
*Material, name=Bone
*Conductivity
 0.43,
*Density
 1e-09,
*Specific Heat
 2e+09,
*Material, name=Cement
*Conductivity, dependencies=1
 0.17, ,0.
*Density
 1.1e-09,
*Depvar
      1,
*Heat Generation
*Specific Heat
 6.3e+08,
*User Defined Field
*Material, name=Implant
*Conductivity
20.,
*Density
 6e-09,
*Specific Heat
 4e+08,
** 
** FIELDS
** 
** Name: Field-1   Type: Temperature
*Initial Conditions, type=TEMPERATURE
_PickedSet11, 310.
** Name: Field-2   Type: Temperature
*Initial Conditions, type=TEMPERATURE
_PickedSet12, 296.
** ----------------------------------------------------------------
** 
** STEP: Step-1
** 
*Step, name=Step-1, extrapolation=NO, inc=1000000, unsymm=YES
*Heat Transfer, end=PERIOD, deltmx=1.
0.004, 2000., 1e-08, 0.004, 
** 
** BOUNDARY CONDITIONS
** 
** Name: BC-1 Type: Temperature
*Boundary
_PickedSet5, 11, 11, 310.
** 
** CONTROLS
** 
*Controls, reset
*Controls, parameters=time incrementation
100, 100, , 100, , , , , , , 
** 
** OUTPUT REQUESTS
** 
*Restart, write, frequency=0
** 
** FIELD OUTPUT: F-Output-1
** 
*Output, field, frequency=100
*Node Output
NT, 
*Element Output, directions=YES
HFL, NFLUX, SDV, TEMP
*Contact Output
HFLA, 
** 
** HISTORY OUTPUT: H-Output-1
** 
*Output, history, variable=PRESELECT
*End Step
